         245

N   -1.8356600   0.2527800 -10.2561197  atom_vector    0.2479363   0.0473234   2.0044188
D   -1.0361400   0.8584900 -10.2323799  atom_vector    0.2480738   0.0471195   2.0047047
C   -1.8318400  -0.9423700  -9.4210701  atom_vector    0.2471700   0.0475084   2.0047085
H   -0.8204800  -1.0951500  -9.0823498  atom_vector    0.2470996   0.0468963   2.0046542
H   -2.2056000  -1.7672499 -10.0113001  atom_vector    0.2465778   0.0475870   2.0049739
C   -2.6945400  -0.8019600  -8.1889400  atom_vector    0.2473936   0.0483856   2.0047860
O   -3.1227100   0.3042700  -7.8493700  atom_vector    0.2478042   0.0486903   2.0043025
N   -3.0057199  -1.8760200  -7.4827499  atom_vector    0.2471223   0.0488316   2.0053687
C   -3.8711100  -1.7966400  -6.3154202  atom_vector    0.2473063   0.0496771   2.0054562
H   -4.7438202  -1.2175300  -6.5751100  atom_vector    0.2475521   0.0500174   2.0053844
C   -2.5488701  -3.2374401  -7.7676601  atom_vector    0.2464932   0.0485181   2.0058563
H   -1.4464800  -3.2797899  -7.9167800  atom_vector    0.2464527   0.0479957   2.0057063
H   -3.0721200  -3.6094999  -8.6750298  atom_vector    0.2461668   0.0483746   2.0060959
C   -4.1966200  -3.2729499  -6.0235901  atom_vector    0.2466760   0.0499209   2.0060165
H   -5.0856900  -3.5686300  -6.6243200  atom_vector    0.2465519   0.0500883   2.0061166
H   -4.4046898  -3.4703400  -4.9516802  atom_vector    0.2465883   0.0503976   2.0060875
C   -2.9748199  -4.0410199  -6.5381999  atom_vector    0.2463516   0.0492361   2.0062778
H   -2.1689200  -3.9957299  -5.7722301  atom_vector    0.2464630   0.0493447   2.0061584
H   -3.1968501  -5.1007400  -6.7749600  atom_vector    0.2459476   0.0492034   2.0068238
C   -3.1522400  -1.1101600  -5.1540298  atom_vector    0.2477117   0.0496541   2.0052137
O   -1.9204700  -1.1985199  -5.0823898  atom_vector    0.2477413   0.0497344   2.0047874
N   -3.8164401  -0.4065100  -4.2441602  atom_vector    0.2479578   0.0495195   2.0054917
C   -3.1369500   0.2209500  -3.1230900  atom_vector    0.2482143   0.0491691   2.0055273
H   -2.2766800   0.7718400  -3.4775100  atom_vector    0.2482482   0.0491147   2.0055370
C   -5.2656398  -0.1904500  -4.2268000  atom_vector    0.2479730   0.0496073   2.0058198
H   -5.8177199  -1.1540000  -4.3108201  atom_vector    0.2478923   0.0496560   2.0057671
H   -5.5399499   0.4878100  -5.0651798  atom_vector    0.2478491   0.0497469   2.0059736
C   -4.2128100   1.1363500  -2.5189199  atom_vector    0.2484197   0.0491941   2.0058544
H   -4.1633902   2.1285000  -3.0178800  atom_vector    0.2484200   0.0492483   2.0059588
H   -4.0865598   1.2877200  -1.4280100  atom_vector    0.2486386   0.0490446   2.0058484
C   -5.5481501   0.4790300  -2.8806801  atom_vector    0.2482901   0.0493677   2.0060027
H   -5.7921000  -0.2921600  -2.1191599  atom_vector    0.2483950   0.0492076   2.0058761
H   -6.3799400   1.2102300  -2.9340100  atom_vector    0.2483339   0.0494347   2.0063133
C   -2.6224201  -0.8303000  -2.1561100  atom_vector    0.2481530   0.0489245   2.0053148
O   -3.0714300  -1.9805900  -2.1770899  atom_vector    0.2480817   0.0489553   2.0050795
N   -1.6300200  -0.4667200  -1.3321199  atom_vector    0.2481544   0.0487137   2.0054085
D   -1.3266200   0.4894900  -1.3298100  atom_vector    0.2481998   0.0486953   2.0055490
C   -0.8446200  -1.4498100  -0.5957900  atom_vector    0.2479999   0.0485548   2.0053594
H   -0.0069000  -0.9252800  -0.1670200  atom_vector    0.2480586   0.0484182   2.0054150
H   -0.5395500  -2.2083600  -1.3040200  atom_vector    0.2479469   0.0485629   2.0053289
C   -1.5475200  -2.1428299   0.5467200  atom_vector    0.2479199   0.0485624   2.0053179
O   -2.6476500  -1.7537600   0.9494600  atom_vector    0.2479110   0.0486089   2.0052509
N   -0.9481800  -3.1770799   1.1086500  atom_vector    0.2478391   0.0485328   2.0053508
C   -1.5165300  -3.8919101   2.2446301  atom_vector    0.2477708   0.0485851   2.0053496
H   -2.5590100  -4.0925999   2.0455799  atom_vector    0.2477732   0.0486018   2.0053232
C    0.3300100  -3.7368600   0.6641400  atom_vector    0.2478543   0.0485041   2.0054278
H    1.1117500  -2.9560900   0.5265600  atom_vector    0.2478720   0.0484865   2.0054429
H    0.1678100  -4.2910800  -0.2896600  atom_vector    0.2478718   0.0484895   2.0054348
C   -0.6480400  -5.1600699   2.3075700  atom_vector    0.2477458   0.0485667   2.0054204
H   -1.0687799  -5.9161601   1.6044400  atom_vector    0.2477675   0.0485810   2.0053909
H   -0.5866700  -5.6080599   3.3199501  atom_vector    0.2476695   0.0485680   2.0054238
C    0.7111400  -4.7007899   1.7790400  atom_vector    0.2477849   0.0485300   2.0054774
H    1.2598000  -4.1572700   2.5790401  atom_vector    0.2477435   0.0485553   2.0054889
H    1.3358700  -5.5310602   1.3994401  atom_vector    0.2477875   0.0485048   2.0055444
C   -1.4021000  -3.0498600   3.5143800  atom_vector    0.2477617   0.0486229   2.0053120
O   -0.6869800  -2.0436201   3.4823599  atom_vector    0.2477278   0.0486467   2.0052536
N   -2.0527799  -3.3474801   4.6303201  atom_vector    0.2478015   0.0486601   2.0053391
C   -1.9962600  -2.4744599   5.8002100  atom_vector    0.2478804   0.0487043   2.0052907
H   -2.2369399  -1.4703900   5.4874101  atom_vector    0.2478932   0.0487035   2.0052879
C   -3.1268599  -4.3400102   4.7243400  atom_vector    0.2477455   0.0487292   2.0054004
H   -2.6785100  -5.3125901   5.0300202  atom_vector    0.2476941   0.0486996   2.0053885
H   -3.6930101  -4.4606299   3.7738199  atom_vector    0.2477123   0.0487429   2.0054200
C   -3.0476501  -3.0763600   6.7456398  atom_vector    0.2479421   0.0487479   2.0053749
H   -3.5370100  -2.2994399   7.3682499  atom_vector    0.2480171   0.0487607   2.0054188
H   -2.5827701  -3.8333199   7.4152398  atom_vector    0.2479753   0.0487386   2.0053458
C   -4.0342999  -3.7961800   5.8234401  atom_vector    0.2478422   0.0487720   2.0054600
H   -4.5975699  -4.5938101   6.3489199  atom_vector    0.2478875   0.0487871   2.0055375
H   -4.7515998  -3.0652299   5.3919802  atom_vector    0.2478129   0.0487780   2.0055304
C   -0.6282700  -2.4403999   6.4624600  atom_vector    0.2479453   0.0486405   2.0051441
O    0.2377400  -3.2569399   6.1433702  atom_vector    0.2478270   0.0485269   2.0051043
N   -0.3983200  -1.5180600   7.4079499  atom_vector    0.2481500   0.0487589   2.0049753
D   -1.1191400  -0.8686900   7.6495800  atom_vector    0.2482448   0.0488628   2.0049729
C    0.8762300  -1.4487500   8.1208897  atom_vector    0.2482967   0.0487585   2.0046942
H    0.9113900  -0.5010900   8.6329298  atom_vector    0.2482902   0.0486233   2.0049546
H    1.6732000  -1.5601100   7.3972001  atom_vector    0.2481465   0.0490578   2.0044849
C    1.0393000  -2.5206599   9.1765003  atom_vector    0.2486572   0.0484934   2.0043640
O    0.0800500  -3.2278299   9.4995098  atom_vector    0.2487504   0.0484288   2.0045149
N    2.3528600   2.4363699  -9.9654303  atom_vector    0.2477518   0.0472373   2.0049860
C    2.0240901   1.5770299  -8.8321505  atom_vector    0.2469641   0.0479416   2.0053051
H    1.6904200   0.6123000  -9.1904697  atom_vector    0.2466594   0.0479045   2.0056973
C    3.8054500   2.5620999 -10.1375704  atom_vector    0.2478717   0.0465981   2.0055337
H    4.0991402   3.6010699  -9.8642397  atom_vector    0.2481719   0.0465765   2.0052955
H    4.1395998   2.3321900 -11.1750202  atom_vector    0.2481926   0.0461309   2.0057390
C    3.3478999   1.4898900  -8.0583496  atom_vector    0.2466660   0.0476981   2.0057983
H    3.4095399   0.5618000  -7.4522400  atom_vector    0.2460394   0.0479336   2.0062332
H    3.4626300   2.3752899  -7.3902998  atom_vector    0.2468373   0.0479296   2.0054646
C    4.4087701   1.5591201  -9.1554604  atom_vector    0.2470777   0.0467257   2.0061421
H    5.4039898   1.8774400  -8.7854605  atom_vector    0.2470917   0.0464148   2.0063765
H    4.5013700   0.5741200  -9.6622601  atom_vector    0.2467776   0.0464579   2.0066125
C    0.9303800   2.1778100  -7.9762001  atom_vector    0.2470182   0.0488224   2.0047891
O    0.6755000   3.3814299  -8.0602598  atom_vector    0.2475153   0.0488811   2.0041699
N    0.2725100   1.3754200  -7.1261101  atom_vector    0.2466015   0.0494743   2.0050879
D    0.5125300   0.4074000  -7.0657001  atom_vector    0.2462000   0.0494109   2.0054703
C   -0.7480300   1.8970701  -6.2225599  atom_vector    0.2468693   0.0502227   2.0049586
H   -1.2805901   1.0548300  -5.8146200  atom_vector    0.2460403   0.0506107   2.0047004
H   -1.3857200   2.5656400  -6.7833300  atom_vector    0.2475507   0.0508971   2.0049903
C   -0.1445500   2.6487401  -5.0589099  atom_vector    0.2472951   0.0494979   2.0052166
O    1.0374300   2.4603901  -4.7644701  atom_vector    0.2472766   0.0489963   2.0049727
N   -0.8589600   3.5144899  -4.3588300  atom_vector    0.2476424   0.0494421   2.0056419
C   -0.2847800   4.2582898  -3.2446599  atom_vector    0.2480211   0.0490672   2.0057099
H    0.6642100   4.6705599  -3.5507801  atom_vector    0.2480593   0.0489255   2.0056331
C   -2.2501500   3.8810101  -4.6318202  atom_vector    0.2476949   0.0498575   2.0059347
H   -2.8951001   2.9850800  -4.7645898  atom_vector    0.2474500   0.0500483   2.0058346
H   -2.2813399   4.5180602  -5.5450702  atom_vector    0.2477337   0.0500714   2.0060797
C   -1.3457900   5.3412700  -2.9756000  atom_vector    0.2483074   0.0492672   2.0060930
H   -1.1362100   6.2158599  -3.6333301  atom_vector    0.2483978   0.0493230   2.0061932
H   -1.3678000   5.6882100  -1.9226201  atom_vector    0.2485663   0.0491085   2.0061476
C   -2.6647100   4.6968098  -3.4090500  atom_vector    0.2480828   0.0496597   2.0061948
H   -3.0195401   4.0203400  -2.5999100  atom_vector    0.2480889   0.0495330   2.0060921
H   -3.4517100   5.4442301  -3.6348000  atom_vector    0.2482052   0.0498835   2.0065167
C   -0.0578600   3.3440499  -2.0407400  atom_vector    0.2480286   0.0488357   2.0055466
O   -0.5710700   2.2170100  -2.0478599  atom_vector    0.2480542   0.0488276   2.0053537
N    0.6762200   3.7369201  -1.0005200  atom_vector    0.2480287   0.0486874   2.0056121
C    0.8903300   2.8707600   0.1541100  atom_vector    0.2479204   0.0485876   2.0055566
H    1.2688500   1.9267401  -0.2068400  atom_vector    0.2478502   0.0485746   2.0055246
C    1.6061200   4.8701100  -1.0295200  atom_vector    0.2480502   0.0486680   2.0057704
H    1.0602900   5.7946701  -0.7371500  atom_vector    0.2480694   0.0486484   2.0058687
H    2.0800300   5.0070200  -2.0283501  atom_vector    0.2480573   0.0487837   2.0057907
C    1.9073100   3.6399701   1.0127000  atom_vector    0.2479432   0.0484627   2.0056467
H    2.5758600   2.9534199   1.5725100  atom_vector    0.2479001   0.0483855   2.0056076
H    1.3849601   4.3022699   1.7382801  atom_vector    0.2479697   0.0484244   2.0057049
C    2.6675000   4.5170898   0.0115000  atom_vector    0.2480139   0.0485257   2.0057552
H    3.1072099   5.4168601   0.4880300  atom_vector    0.2480150   0.0484674   2.0058706
H    3.4728501   3.9366100  -0.4839000  atom_vector    0.2480194   0.0485588   2.0057328
C   -0.3998100   2.6045401   0.9105900  atom_vector    0.2478719   0.0486637   2.0055125
O   -1.3365500   3.3955801   0.7987200  atom_vector    0.2479735   0.0487934   2.0055580
N   -0.4849100   1.4956100   1.6593601  atom_vector    0.2477275   0.0485778   2.0053766
D    0.3291200   0.9216200   1.7560101  atom_vector    0.2476711   0.0484893   2.0053194
C   -1.7515600   0.9967400   2.1999600  atom_vector    0.2476690   0.0486574   2.0053146
H   -1.5398099   0.0066400   2.5646601  atom_vector    0.2475946   0.0486488   2.0053439
H   -2.4755599   0.9914500   1.3961101  atom_vector    0.2477154   0.0486515   2.0052741
C   -2.3799500   1.7469800   3.3558400  atom_vector    0.2476217   0.0486834   2.0052710
O   -1.8907000   2.7954900   3.7818999  atom_vector    0.2476276   0.0486970   2.0052328
N   -3.4844799   1.2486500   3.8973401  atom_vector    0.2475959   0.0487473   2.0052834
C   -4.1570401   1.8644201   5.0355401  atom_vector    0.2476891   0.0487619   2.0053282
H   -4.2108102   2.9313600   4.8801398  atom_vector    0.2476421   0.0487559   2.0053086
C   -4.1080298  -0.0160500   3.4932499  atom_vector    0.2476554   0.0486645   2.0054481
H   -3.3770101  -0.8546800   3.4953799  atom_vector    0.2477044   0.0487100   2.0054924
H   -4.5454001   0.1012300   2.4796700  atom_vector    0.2476065   0.0485437   2.0054584
C   -5.5276699   1.1657701   5.0050998  atom_vector    0.2477145   0.0487043   2.0055039
H   -6.1730299   1.6680100   4.2487001  atom_vector    0.2476349   0.0486334   2.0055239
H   -6.0518599   1.1749400   5.9812102  atom_vector    0.2478097   0.0487469   2.0055530
C   -5.2091599  -0.2506100   4.5258498  atom_vector    0.2477295   0.0486901   2.0055408
H   -4.8040500  -0.8406300   5.3779402  atom_vector    0.2478226   0.0487489   2.0055380
H   -6.0914202  -0.7706100   4.1019101  atom_vector    0.2477082   0.0486480   2.0056424
C   -3.3964200   1.5933300   6.3371501  atom_vector    0.2478442   0.0487820   2.0052238
O   -2.4545500   0.7961400   6.3041601  atom_vector    0.2478392   0.0487804   2.0050879
N   -3.7021101   2.1952701   7.4826298  atom_vector    0.2480342   0.0487935   2.0052581
C   -2.8753901   2.0205600   8.6740303  atom_vector    0.2483095   0.0488569   2.0050616
H   -1.8511200   2.2339499   8.4079399  atom_vector    0.2482402   0.0489469   2.0048721
C   -4.5964999   3.3507800   7.5981698  atom_vector    0.2480958   0.0488262   2.0053949
H   -5.6185999   2.9771099   7.8338499  atom_vector    0.2481190   0.0488647   2.0055721
H   -4.6193399   3.9762700   6.6786499  atom_vector    0.2479493   0.0488063   2.0053856
C   -3.4579101   3.0407600   9.6687202  atom_vector    0.2484067   0.0487702   2.0051970
H   -2.6859500   3.4146500  10.3735504  atom_vector    0.2484708   0.0487395   2.0051432
H   -4.2909698   2.5845799  10.2516603  atom_vector    0.2484795   0.0487060   2.0052581
C   -4.0292101   4.1426301   8.7747698  atom_vector    0.2482915   0.0488064   2.0053155
H   -4.7966099   4.7542801   9.2902403  atom_vector    0.2483630   0.0487832   2.0054507
H   -3.2067599   4.8028798   8.4202900  atom_vector    0.2482421   0.0488118   2.0052199
C   -2.9050100   0.6256600   9.2728901  atom_vector    0.2485461   0.0488229   2.0049546
O   -3.7417200  -0.1996100   8.9027004  atom_vector    0.2484839   0.0488017   2.0051279
N    2.1547101  -2.5450799 -10.3591604  atom_vector    0.2474436   0.0471437   2.0050430
C    2.3001399  -3.4777400  -9.2448397  atom_vector    0.2467463   0.0473906   2.0053821
H    1.8154100  -4.4129801  -9.4868898  atom_vector    0.2462655   0.0475796   2.0056157
C    3.4475200  -2.1374900 -10.9075098  atom_vector    0.2477816   0.0465566   2.0053852
H    3.4478700  -1.0667300 -11.2101297  atom_vector    0.2482863   0.0465167   2.0052581
H    3.6996300  -2.7812901 -11.7825298  atom_vector    0.2477659   0.0463396   2.0055373
C    3.8308401  -3.6392601  -9.1041803  atom_vector    0.2466454   0.0465951   2.0056114
H    4.1405401  -4.5307202  -9.6976500  atom_vector    0.2462649   0.0464465   2.0056360
H    4.1600699  -3.7755499  -8.0544004  atom_vector    0.2464345   0.0464046   2.0056522
C    4.4176698  -2.3889799  -9.7598696  atom_vector    0.2473443   0.0463032   2.0057049
H    4.3632798  -1.5365200  -9.0466995  atom_vector    0.2473981   0.0463719   2.0056257
H    5.4586701  -2.5244601 -10.1185398  atom_vector    0.2474085   0.0458688   2.0060699
C    1.6549100  -2.8921399  -7.9917498  atom_vector    0.2470058   0.0480347   2.0052369
O    1.2957400  -1.7087700  -8.0153103  atom_vector    0.2472838   0.0481010   2.0048406
N    1.4746000  -3.6284699  -6.9005799  atom_vector    0.2469364   0.0484749   2.0055413
C    0.8455000  -3.0813100  -5.7031102  atom_vector    0.2472069   0.0490653   2.0054247
H   -0.1090500  -2.6618900  -5.9830198  atom_vector    0.2473375   0.0493060   2.0053499
C    1.5635300  -5.0936198  -6.8601799  atom_vector    0.2464936   0.0484598   2.0060296
H    2.6113100  -5.3821902  -6.6194801  atom_vector    0.2464085   0.0482126   2.0061116
H    1.2451000  -5.5758500  -7.8119402  atom_vector    0.2463675   0.0482451   2.0061858
C    0.7267700  -4.3022299  -4.7697701  atom_vector    0.2468366   0.0493715   2.0057926
H   -0.1464400  -4.2232099  -4.0893102  atom_vector    0.2468930   0.0498698   2.0058131
H    1.6519200  -4.4183002  -4.1587200  atom_vector    0.2468170   0.0492548   2.0058045
C    0.6287400  -5.4959502  -5.7213998  atom_vector    0.2464087   0.0491014   2.0061815
H    0.9319600  -6.4509802  -5.2439198  atom_vector    0.2461626   0.0491586   2.0064638
H   -0.4086400  -5.5954499  -6.1073298  atom_vector    0.2463562   0.0493010   2.0062819
C    1.6517600  -1.9840900  -5.0319400  atom_vector    0.2476029   0.0489716   2.0051703
O    2.8592300  -1.8687201  -5.2504501  atom_vector    0.2475814   0.0487186   2.0049040
N    1.0054100  -1.1743900  -4.1790900  atom_vector    0.2479323   0.0491322   2.0052874
D    0.0130300  -1.2629600  -4.0882401  atom_vector    0.2479363   0.0493269   2.0054240
C    1.7132500  -0.2008100  -3.3535099  atom_vector    0.2482326   0.0489839   2.0052266
H    0.9784400   0.4771000  -2.9509001  atom_vector    0.2484241   0.0492322   2.0051696
H    2.4452000   0.2966300  -3.9748199  atom_vector    0.2483861   0.0487513   2.0052218
C    2.4165699  -0.8365000  -2.1753900  atom_vector    0.2480337   0.0488820   2.0053160
O    2.0878501  -1.9677200  -1.8081501  atom_vector    0.2479032   0.0488801   2.0051975
N    3.3844600  -0.1868500  -1.5389400  atom_vector    0.2480042   0.0487757   2.0054905
C    4.0731201  -0.7424300  -0.3786600  atom_vector    0.2479304   0.0486213   2.0054657
H    4.3299198  -1.7695200  -0.5745700  atom_vector    0.2479198   0.0486404   2.0053682
C    3.9033501   1.1263900  -1.9233500  atom_vector    0.2480458   0.0488145   2.0056922
H    3.0895500   1.8745000  -2.0542300  atom_vector    0.2480664   0.0488393   2.0057333
H    4.4771299   1.0151300  -2.8686199  atom_vector    0.2481081   0.0489050   2.0057235
C    5.3171201   0.1579100  -0.2594600  atom_vector    0.2479558   0.0485723   2.0056133
H    6.1053600  -0.2420000  -0.9384000  atom_vector    0.2479367   0.0486448   2.0055463
H    5.7253399   0.2102900   0.7698700  atom_vector    0.2479627   0.0484031   2.0056181
C    4.8456702   1.5120800  -0.7830200  atom_vector    0.2479864   0.0486527   2.0057986
H    4.2698498   2.0228100   0.0193500  atom_vector    0.2479290   0.0485119   2.0058477
H    5.6761899   2.1636200  -1.1216500  atom_vector    0.2480088   0.0487018   2.0059578
C    3.1757400  -0.6978200   0.8567100  atom_vector    0.2479044   0.0485176   2.0054412
O    2.0947001  -0.1029200   0.7736400  atom_vector    0.2478911   0.0484973   2.0054562
N    3.5188999  -1.2842300   1.9982300  atom_vector    0.2479104   0.0484437   2.0054092
C    2.5908799  -1.3479700   3.1230600  atom_vector    0.2478953   0.0483549   2.0053802
H    1.6668299  -1.7789800   2.7678599  atom_vector    0.2478956   0.0483819   2.0053518
C    4.6119399  -2.2538199   2.1313901  atom_vector    0.2479311   0.0484663   2.0053811
H    5.5361300  -1.7082500   2.4255500  atom_vector    0.2479061   0.0484653   2.0054669
H    4.7888498  -2.8401201   1.2011900  atom_vector    0.2480031   0.0485637   2.0053349
C    3.3120501  -2.2525401   4.1328301  atom_vector    0.2478883   0.0483111   2.0053442
H    2.6015301  -2.8082800   4.7797699  atom_vector    0.2478861   0.0482662   2.0053055
H    3.9992299  -1.6602100   4.7754002  atom_vector    0.2478612   0.0482839   2.0054030
C    4.1546602  -3.1771100   3.2565100  atom_vector    0.2479188   0.0483788   2.0053029
H    4.9952598  -3.6437700   3.8074901  atom_vector    0.2479149   0.0483708   2.0053041
H    3.5057001  -3.9728000   2.8311901  atom_vector    0.2479383   0.0483981   2.0052450
C    2.2635801   0.0071100   3.7259400  atom_vector    0.2479164   0.0483302   2.0054231
O    3.0002501   0.9768500   3.5305500  atom_vector    0.2480901   0.0482554   2.0056789
N    1.1440901   0.1066600   4.4557800  atom_vector    0.2477136   0.0483997   2.0050948
D    0.5761300  -0.7110300   4.5643902  atom_vector    0.2475800   0.0484573   2.0048506
C    0.6758500   1.3585100   5.0448298  atom_vector    0.2477064   0.0484361   2.0049846
H   -0.3478800   1.1967900   5.3295202  atom_vector    0.2478022   0.0483732   2.0052838
H    0.7853000   2.1469700   4.3132000  atom_vector    0.2474059   0.0483055   2.0048006
C    1.4071701   1.7883900   6.2887301  atom_vector    0.2479822   0.0487624   2.0046859
O    2.3335600   1.1079201   6.7326598  atom_vector    0.2481815   0.0489302   2.0045316
N    1.0622300   2.9159300   6.8931799  atom_vector    0.2480975   0.0488473   2.0045626
C    1.7839100   3.4170899   8.0525303  atom_vector    0.2484286   0.0490640   2.0042312
H    2.8397501   3.4066999   7.8316998  atom_vector    0.2483415   0.0492189   2.0038416
C   -0.0631600   3.7704899   6.5113502  atom_vector    0.2478172   0.0486163   2.0049045
H   -0.9996200   3.1854100   6.3820701  atom_vector    0.2478703   0.0484561   2.0053031
H    0.1879800   4.2944698   5.5666599  atom_vector    0.2474106   0.0485265   2.0047612
C    1.2355800   4.8454099   8.2144499  atom_vector    0.2483018   0.0489986   2.0042810
H    1.8364500   5.5346098   7.5778399  atom_vector    0.2479548   0.0489915   2.0039425
H    1.2714200   5.2114201   9.2606602  atom_vector    0.2487022   0.0491218   2.0042140
C   -0.1892700   4.7765799   7.6567798  atom_vector    0.2480971   0.0487317   2.0048385
H   -0.8679300   4.3711200   8.4386396  atom_vector    0.2484609   0.0487088   2.0051422
H   -0.5611000   5.7653799   7.3167300  atom_vector    0.2478309   0.0486412   2.0048749
C    1.5003901   2.5336001   9.2684202  atom_vector    0.2488782   0.0490660   2.0043249
O    0.4738500   1.8439300   9.2635098  atom_vector    0.2488696   0.0490549   2.0046203
